[General]
record-eventlog = false
**.vector-recording=false
#cmdenv-express-mode = false
#cmdenv-message-trace=true
#cmdenv-autoflush=true
network = hnocs.topologies.Mesh

sim-time-limit = 1ms
**.inPort.flitsPerVC = 5
# only required for VOQ sched...
**.inPort.numParallelSends = 5
**.flitSize = 4B
**.source.pktVC = 0
**.source.maxQueuedPkts = 16
**.tClk = 2ns
**.sched.freeRunningClk = false
**.sched.speculativeGntOnCompltedReq = false
**.statStartTime = 50us
**.source.isSynchronous = false
**.msgLen = 1
**.ackEverything = false
**.source.isTrace = false
**.source.fileName = ""

[Config flows-5]
**.pktLen = ${P=16} # flits
**.source.flitArrivalDelay = exponential(${D=3,3.5,4,4.5,5,6,7,8,9}ns)
**.columns = 4
**.rows = 4
**core[0].source.dstId = 15
**core[1].source.dstId = 2
**core[2].source.dstId = 3
**core[3].source.dstId = 7
**core[7].source.dstId = 11
**core[4..6].source.dstId = -1
**core[8..15].source.dstId = -1

[Config fairness-5]
**.pktLen = ${P=16} # flits
**.source.flitArrivalDelay = exponential(${D=3,3.5,4,4.5,5,6,7,8,9}ns)
**.columns = 5
**.rows = 5
**core[0].source.dstId = 24
**core[1].source.dstId = 19
**core[2].source.dstId = 14
**core[3].source.dstId = 9
**core[4..24].source.dstId = -1
**.numVCs = 1

[Config permutation-4x4]
**.pktLen = ${P=8,16,24} # flits
**.source.flitArrivalDelay = exponential(${D=3,3.5,4,4.5,5,6,7,8,9}ns)
**.columns = 4
**.rows = 4
**core[0].source.dstId = 8
**core[1].source.dstId = 14
**core[2].source.dstId = 7
**core[3].source.dstId = 15
**core[4].source.dstId = 5
**core[5].source.dstId = 10
**core[6].source.dstId = 3
**core[7].source.dstId = 0
**core[8].source.dstId = 2
**core[9].source.dstId = 13
**core[10].source.dstId = 4
**core[11].source.dstId = 9
**core[12].source.dstId = 1
**core[13].source.dstId = 12
**core[14].source.dstId = 11
**core[15].source.dstId = 6

[Config permutation-5x5]
**.pktLen = ${P=8,16,24} # flits
**.source.flitArrivalDelay = exponential(${D=3,3.5,4,4.5,5,6,7,8,9}ns)
**.columns = 5
**.rows = 5
**core[0].source.dstId = 10
**core[1].source.dstId = 19
**core[2].source.dstId = 5
**core[3].source.dstId = 4
**core[4].source.dstId = 0
**core[5].source.dstId = 13
**core[6].source.dstId = 2
**core[7].source.dstId = 8
**core[8].source.dstId = 15
**core[9].source.dstId = 16
**core[10].source.dstId = 1
**core[11].source.dstId = 24
**core[12].source.dstId = 3
**core[13].source.dstId = 17
**core[14].source.dstId = 6
**core[15].source.dstId = 18
**core[16].source.dstId = 7
**core[17].source.dstId = 20
**core[18].source.dstId = 14
**core[19].source.dstId = 22
**core[20].source.dstId = 21
**core[21].source.dstId = 9
**core[22].source.dstId = 23
**core[23].source.dstId = 11
**core[24].source.dstId = 12


[Config permutation-6x6]
**.pktLen = ${P=8,16,24} # flits
**.source.flitArrivalDelay = exponential(${D=3,3.5,4,4.5,5,6,7,8,9}ns)
**.columns = 6
**.rows = 6
**core[0].source.dstId = 29
**core[1].source.dstId = 21
**core[2].source.dstId = 10
**core[3].source.dstId = 19
**core[4].source.dstId = 32
**core[5].source.dstId = 35
**core[6].source.dstId = 4
**core[7].source.dstId = 16
**core[8].source.dstId = 12
**core[9].source.dstId = 1
**core[10].source.dstId = 8
**core[11].source.dstId = 34
**core[12].source.dstId = 23
**core[13].source.dstId = 6
**core[14].source.dstId = 26
**core[15].source.dstId = 14
**core[16].source.dstId = 17
**core[17].source.dstId = 5
**core[18].source.dstId = 7
**core[19].source.dstId = 31
**core[20].source.dstId = 15
**core[21].source.dstId = 22
**core[22].source.dstId = 2
**core[23].source.dstId = 18
**core[24].source.dstId = 33
**core[25].source.dstId = 30
**core[26].source.dstId = 24
**core[27].source.dstId = 0
**core[28].source.dstId = 3
**core[29].source.dstId = 20
**core[30].source.dstId = 25
**core[31].source.dstId = 11
**core[32].source.dstId = 27
**core[33].source.dstId = 13
**core[34].source.dstId = 9
**core[35].source.dstId = 28

[Config wc-hot-module-6x6]
**.pktLen = ${P=8,16,24} # flits
**.source.flitArrivalDelay = exponential(${D=3,3.5,4,4.5,5,6,7,8,9}ns)
**.columns = 6
**.rows = 6
**core[0].source.dstId = 29
**core[1].source.dstId = 21
**core[2].source.dstId = 10
**core[3].source.dstId = 19
**core[4].source.dstId = 32
**core[5].source.dstId = 35
**core[6].source.dstId = 4
**core[7].source.dstId = 16
**core[8].source.dstId = 12
**core[9].source.dstId = 1
**core[10].source.dstId = 8
**core[11].source.dstId = 34
**core[12].source.dstId = 23
**core[13].source.dstId = 6
**core[14].source.dstId = 26
**core[15].source.dstId = 14
**core[16].source.dstId = 17
**core[17].source.dstId = 5
**core[18].source.dstId = 7
**core[19].source.dstId = 31
**core[20].source.dstId = 15
**core[21].source.dstId = 22
**core[22].source.dstId = 2
**core[23].source.dstId = 18
**core[24].source.dstId = 33
**core[25].source.dstId = 30
**core[26].source.dstId = 24
**core[27].source.dstId = 0
**core[28].source.dstId = 3
**core[29].source.dstId = 20
**core[30].source.dstId = 25
**core[31].source.dstId = 11
**core[32].source.dstId = 27
**core[33].source.dstId = 13
**core[34].source.dstId = 9
**core[35].source.dstId = 28

[Config permutation-7x7]
**.pktLen = ${P=8,16,24} # flits
**.source.flitArrivalDelay = exponential(${D=3,3.5,4,4.5,5,6,7,8,9}ns)
**.columns = 7
**.rows = 7
**core[0].source.dstId = 33
**core[1].source.dstId = 9
**core[2].source.dstId = 35
**core[3].source.dstId = 23
**core[4].source.dstId = 13
**core[5].source.dstId = 6
**core[6].source.dstId = 47
**core[7].source.dstId = 14
**core[8].source.dstId = 20
**core[9].source.dstId = 32
**core[10].source.dstId = 41
**core[11].source.dstId = 21
**core[12].source.dstId = 24
**core[13].source.dstId = 40
**core[14].source.dstId = 7
**core[15].source.dstId = 39
**core[16].source.dstId = 8
**core[17].source.dstId = 16
**core[18].source.dstId = 25
**core[19].source.dstId = 46
**core[20].source.dstId = 45
**core[21].source.dstId = 3
**core[22].source.dstId = 43
**core[23].source.dstId = 22
**core[24].source.dstId = 18
**core[25].source.dstId = 37
**core[26].source.dstId = 2
**core[27].source.dstId = 17
**core[28].source.dstId = 29
**core[29].source.dstId = 44
**core[30].source.dstId = 28
**core[31].source.dstId = 15
**core[32].source.dstId = 12
**core[33].source.dstId = 34
**core[34].source.dstId = 48
**core[35].source.dstId = 30
**core[36].source.dstId = 42
**core[37].source.dstId = 38
**core[38].source.dstId = 19
**core[39].source.dstId = 11
**core[40].source.dstId = 4
**core[41].source.dstId = 0
**core[42].source.dstId = 10
**core[43].source.dstId = 5
**core[44].source.dstId = 26
**core[45].source.dstId = 36
**core[46].source.dstId = 1
**core[47].source.dstId = 31
**core[48].source.dstId = 27

[Config permutation-8x8]
**.pktLen = ${P=8,16,24} # flits
**.source.flitArrivalDelay = exponential(${D=3,3.5,4,4.5,5,6,7,8,9}ns)
**.columns = 8
**.rows = 8
**.numVCs = 2
**core[0].source.dstId = 3
**core[1].source.dstId = 46
**core[2].source.dstId = 7
**core[3].source.dstId = 57
**core[4].source.dstId = 25
**core[5].source.dstId = 29
**core[6].source.dstId = 56
**core[7].source.dstId = 18
**core[8].source.dstId = 40
**core[9].source.dstId = 12
**core[10].source.dstId = 49
**core[11].source.dstId = 53
**core[12].source.dstId = 48
**core[13].source.dstId = 37
**core[14].source.dstId = 21
**core[15].source.dstId = 23
**core[16].source.dstId = 52
**core[17].source.dstId = 5
**core[18].source.dstId = 27
**core[19].source.dstId = 62
**core[20].source.dstId = 42
**core[21].source.dstId = 16
**core[22].source.dstId = 47
**core[23].source.dstId = 54
**core[24].source.dstId = 1
**core[25].source.dstId = 35
**core[26].source.dstId = 43
**core[27].source.dstId = 50
**core[28].source.dstId = 0
**core[29].source.dstId = 45
**core[30].source.dstId = 32
**core[31].source.dstId = 33
**core[32].source.dstId = 11
**core[33].source.dstId = 28
**core[34].source.dstId = 38
**core[35].source.dstId = 24
**core[36].source.dstId = 58
**core[37].source.dstId = 55
**core[38].source.dstId = 36
**core[39].source.dstId = 26
**core[40].source.dstId = 63
**core[41].source.dstId = 61
**core[42].source.dstId = 59
**core[43].source.dstId = 19
**core[44].source.dstId = 60
**core[45].source.dstId = 44
**core[46].source.dstId = 6
**core[47].source.dstId = 34
**core[48].source.dstId = 31
**core[49].source.dstId = 9
**core[50].source.dstId = 4
**core[51].source.dstId = 15
**core[52].source.dstId = 22
**core[53].source.dstId = 20
**core[54].source.dstId = 30
**core[55].source.dstId = 51
**core[56].source.dstId = 14
**core[57].source.dstId = 39
**core[58].source.dstId = 41
**core[59].source.dstId = 13
**core[60].source.dstId = 2
**core[61].source.dstId = 17
**core[62].source.dstId = 8
**core[63].source.dstId = 10

[Config cong-6x6]
# This "hot module" 3 destination test should show congestion effect of flow C
**.pktLen = ${P=16} # flits
**.source.flitArrivalDelay = exponential(${D=3,3.5,4,4.5,5,6,7,8,9}ns)
**.columns = 6
**.rows = 6
**core[0].source.dstId = 13 # C
**core[1..5].source.dstId = -1 
**core[6].source.dstId = 19 # A1
**core[7].source.dstId = -1
**core[8].source.dstId = 25 # B1
**core[9..17].source.dstId = -1
**core[18].source.dstId = 19 # A2
**core[19].source.dstId = -1
**core[20].source.dstId = 19 # A3
**core[21..23].source.dstId = -1
**core[24].source.dstId = 25 # B2
**core[25].source.dstId = 19 # A4
**core[26].source.dstId = 25 # B3
**core[27..30].source.dstId = -1
**core[31].source.dstId = 25 # B4
**core[32..35].source.dstId = -1

[Config tornado-8x8]
repeat = 5
**.pktLen = ${P=16} # flits
**.source.flitArrivalDelay = exponential(${D=3,3.5,4,4.5,5,6,7,8,9,10,12,14}ns)
**.columns = 8
**.rows = 8
**.numVCs = 2
**core[0].source.dstId = 27 # tornado(64,8) 0 0 -> 3 3
**core[1].source.dstId = 28 # tornado(64,8) 1 0 -> 4 3
**core[2].source.dstId = 29 # tornado(64,8) 2 0 -> 5 3
**core[3].source.dstId = 30 # tornado(64,8) 3 0 -> 6 3
**core[4].source.dstId = 31 # tornado(64,8) 4 0 -> 7 3
**core[5].source.dstId = 24 # tornado(64,8) 5 0 -> 0 3
**core[6].source.dstId = 25 # tornado(64,8) 6 0 -> 1 3
**core[7].source.dstId = 26 # tornado(64,8) 7 0 -> 2 3
**core[8].source.dstId = 35 # tornado(64,8) 0 1 -> 3 4
**core[9].source.dstId = 36 # tornado(64,8) 1 1 -> 4 4
**core[10].source.dstId = 37 # tornado(64,8) 2 1 -> 5 4
**core[11].source.dstId = 38 # tornado(64,8) 3 1 -> 6 4
**core[12].source.dstId = 39 # tornado(64,8) 4 1 -> 7 4
**core[13].source.dstId = 32 # tornado(64,8) 5 1 -> 0 4
**core[14].source.dstId = 33 # tornado(64,8) 6 1 -> 1 4
**core[15].source.dstId = 34 # tornado(64,8) 7 1 -> 2 4
**core[16].source.dstId = 43 # tornado(64,8) 0 2 -> 3 5
**core[17].source.dstId = 44 # tornado(64,8) 1 2 -> 4 5
**core[18].source.dstId = 45 # tornado(64,8) 2 2 -> 5 5
**core[19].source.dstId = 46 # tornado(64,8) 3 2 -> 6 5
**core[20].source.dstId = 47 # tornado(64,8) 4 2 -> 7 5
**core[21].source.dstId = 40 # tornado(64,8) 5 2 -> 0 5
**core[22].source.dstId = 41 # tornado(64,8) 6 2 -> 1 5
**core[23].source.dstId = 42 # tornado(64,8) 7 2 -> 2 5
**core[24].source.dstId = 51 # tornado(64,8) 0 3 -> 3 6
**core[25].source.dstId = 52 # tornado(64,8) 1 3 -> 4 6
**core[26].source.dstId = 53 # tornado(64,8) 2 3 -> 5 6
**core[27].source.dstId = 54 # tornado(64,8) 3 3 -> 6 6
**core[28].source.dstId = 55 # tornado(64,8) 4 3 -> 7 6
**core[29].source.dstId = 48 # tornado(64,8) 5 3 -> 0 6
**core[30].source.dstId = 49 # tornado(64,8) 6 3 -> 1 6
**core[31].source.dstId = 50 # tornado(64,8) 7 3 -> 2 6
**core[32].source.dstId = 59 # tornado(64,8) 0 4 -> 3 7
**core[33].source.dstId = 60 # tornado(64,8) 1 4 -> 4 7
**core[34].source.dstId = 61 # tornado(64,8) 2 4 -> 5 7
**core[35].source.dstId = 62 # tornado(64,8) 3 4 -> 6 7
**core[36].source.dstId = 63 # tornado(64,8) 4 4 -> 7 7
**core[37].source.dstId = 56 # tornado(64,8) 5 4 -> 0 7
**core[38].source.dstId = 57 # tornado(64,8) 6 4 -> 1 7
**core[39].source.dstId = 58 # tornado(64,8) 7 4 -> 2 7
**core[40].source.dstId = 3 # tornado(64,8) 0 5 -> 3 0
**core[41].source.dstId = 4 # tornado(64,8) 1 5 -> 4 0
**core[42].source.dstId = 5 # tornado(64,8) 2 5 -> 5 0
**core[43].source.dstId = 6 # tornado(64,8) 3 5 -> 6 0
**core[44].source.dstId = 7 # tornado(64,8) 4 5 -> 7 0
**core[45].source.dstId = 0 # tornado(64,8) 5 5 -> 0 0
**core[46].source.dstId = 1 # tornado(64,8) 6 5 -> 1 0
**core[47].source.dstId = 2 # tornado(64,8) 7 5 -> 2 0
**core[48].source.dstId = 11 # tornado(64,8) 0 6 -> 3 1
**core[49].source.dstId = 12 # tornado(64,8) 1 6 -> 4 1
**core[50].source.dstId = 13 # tornado(64,8) 2 6 -> 5 1
**core[51].source.dstId = 14 # tornado(64,8) 3 6 -> 6 1
**core[52].source.dstId = 15 # tornado(64,8) 4 6 -> 7 1
**core[53].source.dstId = 8 # tornado(64,8) 5 6 -> 0 1
**core[54].source.dstId = 9 # tornado(64,8) 6 6 -> 1 1
**core[55].source.dstId = 10 # tornado(64,8) 7 6 -> 2 1
**core[56].source.dstId = 19 # tornado(64,8) 0 7 -> 3 2
**core[57].source.dstId = 20 # tornado(64,8) 1 7 -> 4 2
**core[58].source.dstId = 21 # tornado(64,8) 2 7 -> 5 2
**core[59].source.dstId = 22 # tornado(64,8) 3 7 -> 6 2
**core[60].source.dstId = 23 # tornado(64,8) 4 7 -> 7 2
**core[61].source.dstId = 16 # tornado(64,8) 5 7 -> 0 2
**core[62].source.dstId = 17 # tornado(64,8) 6 7 -> 1 2
**core[63].source.dstId = 18 # tornado(64,8) 7 7 -> 2 2

[Config neighbor-8x8]
**.pktLen = ${P=16} # flits
**.source.flitArrivalDelay = exponential(${D=3,3.5,4,4.5,5,6,7,8,9,10,12,14}ns)
**.columns = 8
**.rows = 8
**.numVCs = 2
**core[0].source.dstId = 9 # neighbor(64,8) 0 0 -> 1 1
**core[1].source.dstId = 10 # neighbor(64,8) 1 0 -> 2 1
**core[2].source.dstId = 11 # neighbor(64,8) 2 0 -> 3 1
**core[3].source.dstId = 12 # neighbor(64,8) 3 0 -> 4 1
**core[4].source.dstId = 13 # neighbor(64,8) 4 0 -> 5 1
**core[5].source.dstId = 14 # neighbor(64,8) 5 0 -> 6 1
**core[6].source.dstId = 15 # neighbor(64,8) 6 0 -> 7 1
**core[7].source.dstId = 8 # neighbor(64,8) 7 0 -> 0 1
**core[8].source.dstId = 17 # neighbor(64,8) 0 1 -> 1 2
**core[9].source.dstId = 18 # neighbor(64,8) 1 1 -> 2 2
**core[10].source.dstId = 19 # neighbor(64,8) 2 1 -> 3 2
**core[11].source.dstId = 20 # neighbor(64,8) 3 1 -> 4 2
**core[12].source.dstId = 21 # neighbor(64,8) 4 1 -> 5 2
**core[13].source.dstId = 22 # neighbor(64,8) 5 1 -> 6 2
**core[14].source.dstId = 23 # neighbor(64,8) 6 1 -> 7 2
**core[15].source.dstId = 16 # neighbor(64,8) 7 1 -> 0 2
**core[16].source.dstId = 25 # neighbor(64,8) 0 2 -> 1 3
**core[17].source.dstId = 26 # neighbor(64,8) 1 2 -> 2 3
**core[18].source.dstId = 27 # neighbor(64,8) 2 2 -> 3 3
**core[19].source.dstId = 28 # neighbor(64,8) 3 2 -> 4 3
**core[20].source.dstId = 29 # neighbor(64,8) 4 2 -> 5 3
**core[21].source.dstId = 30 # neighbor(64,8) 5 2 -> 6 3
**core[22].source.dstId = 31 # neighbor(64,8) 6 2 -> 7 3
**core[23].source.dstId = 24 # neighbor(64,8) 7 2 -> 0 3
**core[24].source.dstId = 33 # neighbor(64,8) 0 3 -> 1 4
**core[25].source.dstId = 34 # neighbor(64,8) 1 3 -> 2 4
**core[26].source.dstId = 35 # neighbor(64,8) 2 3 -> 3 4
**core[27].source.dstId = 36 # neighbor(64,8) 3 3 -> 4 4
**core[28].source.dstId = 37 # neighbor(64,8) 4 3 -> 5 4
**core[29].source.dstId = 38 # neighbor(64,8) 5 3 -> 6 4
**core[30].source.dstId = 39 # neighbor(64,8) 6 3 -> 7 4
**core[31].source.dstId = 32 # neighbor(64,8) 7 3 -> 0 4
**core[32].source.dstId = 41 # neighbor(64,8) 0 4 -> 1 5
**core[33].source.dstId = 42 # neighbor(64,8) 1 4 -> 2 5
**core[34].source.dstId = 43 # neighbor(64,8) 2 4 -> 3 5
**core[35].source.dstId = 44 # neighbor(64,8) 3 4 -> 4 5
**core[36].source.dstId = 45 # neighbor(64,8) 4 4 -> 5 5
**core[37].source.dstId = 46 # neighbor(64,8) 5 4 -> 6 5
**core[38].source.dstId = 47 # neighbor(64,8) 6 4 -> 7 5
**core[39].source.dstId = 40 # neighbor(64,8) 7 4 -> 0 5
**core[40].source.dstId = 49 # neighbor(64,8) 0 5 -> 1 6
**core[41].source.dstId = 50 # neighbor(64,8) 1 5 -> 2 6
**core[42].source.dstId = 51 # neighbor(64,8) 2 5 -> 3 6
**core[43].source.dstId = 52 # neighbor(64,8) 3 5 -> 4 6
**core[44].source.dstId = 53 # neighbor(64,8) 4 5 -> 5 6
**core[45].source.dstId = 54 # neighbor(64,8) 5 5 -> 6 6
**core[46].source.dstId = 55 # neighbor(64,8) 6 5 -> 7 6
**core[47].source.dstId = 48 # neighbor(64,8) 7 5 -> 0 6
**core[48].source.dstId = 57 # neighbor(64,8) 0 6 -> 1 7
**core[49].source.dstId = 58 # neighbor(64,8) 1 6 -> 2 7
**core[50].source.dstId = 59 # neighbor(64,8) 2 6 -> 3 7
**core[51].source.dstId = 60 # neighbor(64,8) 3 6 -> 4 7
**core[52].source.dstId = 61 # neighbor(64,8) 4 6 -> 5 7
**core[53].source.dstId = 62 # neighbor(64,8) 5 6 -> 6 7
**core[54].source.dstId = 63 # neighbor(64,8) 6 6 -> 7 7
**core[55].source.dstId = 56 # neighbor(64,8) 7 6 -> 0 7
**core[56].source.dstId = 1 # neighbor(64,8) 0 7 -> 1 0
**core[57].source.dstId = 2 # neighbor(64,8) 1 7 -> 2 0
**core[58].source.dstId = 3 # neighbor(64,8) 2 7 -> 3 0
**core[59].source.dstId = 4 # neighbor(64,8) 3 7 -> 4 0
**core[60].source.dstId = 5 # neighbor(64,8) 4 7 -> 5 0
**core[61].source.dstId = 6 # neighbor(64,8) 5 7 -> 6 0
**core[62].source.dstId = 7 # neighbor(64,8) 6 7 -> 7 0
**core[63].source.dstId = 0 # neighbor(64,8) 7 7 -> 0 0

[Config bit-complement-8x8]
**.pktLen = ${P=16} # flits
**.source.flitArrivalDelay = exponential(${D=3,3.5,4,4.5,5,6,7,8,9,10,12,14}ns)
**.columns = 8
**.numVCs = 2
**.rows = 8
repeat = 5
**core[0].source.dstId = 63 # complement(64) 0 0 0 0 0 0 -> 1 1 1 1 1 1
**core[1].source.dstId = 62 # complement(64) 1 0 0 0 0 0 -> 0 1 1 1 1 1
**core[2].source.dstId = 61 # complement(64) 0 1 0 0 0 0 -> 1 0 1 1 1 1
**core[3].source.dstId = 60 # complement(64) 1 1 0 0 0 0 -> 0 0 1 1 1 1
**core[4].source.dstId = 59 # complement(64) 0 0 1 0 0 0 -> 1 1 0 1 1 1
**core[5].source.dstId = 58 # complement(64) 1 0 1 0 0 0 -> 0 1 0 1 1 1
**core[6].source.dstId = 57 # complement(64) 0 1 1 0 0 0 -> 1 0 0 1 1 1
**core[7].source.dstId = 56 # complement(64) 1 1 1 0 0 0 -> 0 0 0 1 1 1
**core[8].source.dstId = 55 # complement(64) 0 0 0 1 0 0 -> 1 1 1 0 1 1
**core[9].source.dstId = 54 # complement(64) 1 0 0 1 0 0 -> 0 1 1 0 1 1
**core[10].source.dstId = 53 # complement(64) 0 1 0 1 0 0 -> 1 0 1 0 1 1
**core[11].source.dstId = 52 # complement(64) 1 1 0 1 0 0 -> 0 0 1 0 1 1
**core[12].source.dstId = 51 # complement(64) 0 0 1 1 0 0 -> 1 1 0 0 1 1
**core[13].source.dstId = 50 # complement(64) 1 0 1 1 0 0 -> 0 1 0 0 1 1
**core[14].source.dstId = 49 # complement(64) 0 1 1 1 0 0 -> 1 0 0 0 1 1
**core[15].source.dstId = 48 # complement(64) 1 1 1 1 0 0 -> 0 0 0 0 1 1
**core[16].source.dstId = 47 # complement(64) 0 0 0 0 1 0 -> 1 1 1 1 0 1
**core[17].source.dstId = 46 # complement(64) 1 0 0 0 1 0 -> 0 1 1 1 0 1
**core[18].source.dstId = 45 # complement(64) 0 1 0 0 1 0 -> 1 0 1 1 0 1
**core[19].source.dstId = 44 # complement(64) 1 1 0 0 1 0 -> 0 0 1 1 0 1
**core[20].source.dstId = 43 # complement(64) 0 0 1 0 1 0 -> 1 1 0 1 0 1
**core[21].source.dstId = 42 # complement(64) 1 0 1 0 1 0 -> 0 1 0 1 0 1
**core[22].source.dstId = 41 # complement(64) 0 1 1 0 1 0 -> 1 0 0 1 0 1
**core[23].source.dstId = 40 # complement(64) 1 1 1 0 1 0 -> 0 0 0 1 0 1
**core[24].source.dstId = 39 # complement(64) 0 0 0 1 1 0 -> 1 1 1 0 0 1
**core[25].source.dstId = 38 # complement(64) 1 0 0 1 1 0 -> 0 1 1 0 0 1
**core[26].source.dstId = 37 # complement(64) 0 1 0 1 1 0 -> 1 0 1 0 0 1
**core[27].source.dstId = 36 # complement(64) 1 1 0 1 1 0 -> 0 0 1 0 0 1
**core[28].source.dstId = 35 # complement(64) 0 0 1 1 1 0 -> 1 1 0 0 0 1
**core[29].source.dstId = 34 # complement(64) 1 0 1 1 1 0 -> 0 1 0 0 0 1
**core[30].source.dstId = 33 # complement(64) 0 1 1 1 1 0 -> 1 0 0 0 0 1
**core[31].source.dstId = 32 # complement(64) 1 1 1 1 1 0 -> 0 0 0 0 0 1
**core[32].source.dstId = 31 # complement(64) 0 0 0 0 0 1 -> 1 1 1 1 1 0
**core[33].source.dstId = 30 # complement(64) 1 0 0 0 0 1 -> 0 1 1 1 1 0
**core[34].source.dstId = 29 # complement(64) 0 1 0 0 0 1 -> 1 0 1 1 1 0
**core[35].source.dstId = 28 # complement(64) 1 1 0 0 0 1 -> 0 0 1 1 1 0
**core[36].source.dstId = 27 # complement(64) 0 0 1 0 0 1 -> 1 1 0 1 1 0
**core[37].source.dstId = 26 # complement(64) 1 0 1 0 0 1 -> 0 1 0 1 1 0
**core[38].source.dstId = 25 # complement(64) 0 1 1 0 0 1 -> 1 0 0 1 1 0
**core[39].source.dstId = 24 # complement(64) 1 1 1 0 0 1 -> 0 0 0 1 1 0
**core[40].source.dstId = 23 # complement(64) 0 0 0 1 0 1 -> 1 1 1 0 1 0
**core[41].source.dstId = 22 # complement(64) 1 0 0 1 0 1 -> 0 1 1 0 1 0
**core[42].source.dstId = 21 # complement(64) 0 1 0 1 0 1 -> 1 0 1 0 1 0
**core[43].source.dstId = 20 # complement(64) 1 1 0 1 0 1 -> 0 0 1 0 1 0
**core[44].source.dstId = 19 # complement(64) 0 0 1 1 0 1 -> 1 1 0 0 1 0
**core[45].source.dstId = 18 # complement(64) 1 0 1 1 0 1 -> 0 1 0 0 1 0
**core[46].source.dstId = 17 # complement(64) 0 1 1 1 0 1 -> 1 0 0 0 1 0
**core[47].source.dstId = 16 # complement(64) 1 1 1 1 0 1 -> 0 0 0 0 1 0
**core[48].source.dstId = 15 # complement(64) 0 0 0 0 1 1 -> 1 1 1 1 0 0
**core[49].source.dstId = 14 # complement(64) 1 0 0 0 1 1 -> 0 1 1 1 0 0
**core[50].source.dstId = 13 # complement(64) 0 1 0 0 1 1 -> 1 0 1 1 0 0
**core[51].source.dstId = 12 # complement(64) 1 1 0 0 1 1 -> 0 0 1 1 0 0
**core[52].source.dstId = 11 # complement(64) 0 0 1 0 1 1 -> 1 1 0 1 0 0
**core[53].source.dstId = 10 # complement(64) 1 0 1 0 1 1 -> 0 1 0 1 0 0
**core[54].source.dstId = 9 # complement(64) 0 1 1 0 1 1 -> 1 0 0 1 0 0
**core[55].source.dstId = 8 # complement(64) 1 1 1 0 1 1 -> 0 0 0 1 0 0
**core[56].source.dstId = 7 # complement(64) 0 0 0 1 1 1 -> 1 1 1 0 0 0
**core[57].source.dstId = 6 # complement(64) 1 0 0 1 1 1 -> 0 1 1 0 0 0
**core[58].source.dstId = 5 # complement(64) 0 1 0 1 1 1 -> 1 0 1 0 0 0
**core[59].source.dstId = 4 # complement(64) 1 1 0 1 1 1 -> 0 0 1 0 0 0
**core[60].source.dstId = 3 # complement(64) 0 0 1 1 1 1 -> 1 1 0 0 0 0
**core[61].source.dstId = 2 # complement(64) 1 0 1 1 1 1 -> 0 1 0 0 0 0
**core[62].source.dstId = 1 # complement(64) 0 1 1 1 1 1 -> 1 0 0 0 0 0
**core[63].source.dstId = 0 # complement(64) 1 1 1 1 1 1 -> 0 0 0 0 0 0

[Config bit-reverse-8x8]
**.pktLen = ${P=16} # flits
**.source.flitArrivalDelay = exponential(${D=3,3.5,4,4.5,5,6,7,8,9,10,12,14}ns)
**.columns = 8
**.numVCs = 2
**.rows = 8
repeat = 5
**core[0].source.dstId = -1 # reverse(64) 0 0 0 0 0 0 -> 0 0 0 0 0 0
**core[1].source.dstId = 32 # reverse(64) 1 0 0 0 0 0 -> 0 0 0 0 0 1
**core[2].source.dstId = 16 # reverse(64) 0 1 0 0 0 0 -> 0 0 0 0 1 0
**core[3].source.dstId = 48 # reverse(64) 1 1 0 0 0 0 -> 0 0 0 0 1 1
**core[4].source.dstId = 8 # reverse(64) 0 0 1 0 0 0 -> 0 0 0 1 0 0
**core[5].source.dstId = 40 # reverse(64) 1 0 1 0 0 0 -> 0 0 0 1 0 1
**core[6].source.dstId = 24 # reverse(64) 0 1 1 0 0 0 -> 0 0 0 1 1 0
**core[7].source.dstId = 56 # reverse(64) 1 1 1 0 0 0 -> 0 0 0 1 1 1
**core[8].source.dstId = 4 # reverse(64) 0 0 0 1 0 0 -> 0 0 1 0 0 0
**core[9].source.dstId = 36 # reverse(64) 1 0 0 1 0 0 -> 0 0 1 0 0 1
**core[10].source.dstId = 20 # reverse(64) 0 1 0 1 0 0 -> 0 0 1 0 1 0
**core[11].source.dstId = 52 # reverse(64) 1 1 0 1 0 0 -> 0 0 1 0 1 1
**core[12].source.dstId = -1 # reverse(64) 0 0 1 1 0 0 -> 0 0 1 1 0 0
**core[13].source.dstId = 44 # reverse(64) 1 0 1 1 0 0 -> 0 0 1 1 0 1
**core[14].source.dstId = 28 # reverse(64) 0 1 1 1 0 0 -> 0 0 1 1 1 0
**core[15].source.dstId = 60 # reverse(64) 1 1 1 1 0 0 -> 0 0 1 1 1 1
**core[16].source.dstId = 2 # reverse(64) 0 0 0 0 1 0 -> 0 1 0 0 0 0
**core[17].source.dstId = 34 # reverse(64) 1 0 0 0 1 0 -> 0 1 0 0 0 1
**core[18].source.dstId = -1 # reverse(64) 0 1 0 0 1 0 -> 0 1 0 0 1 0
**core[19].source.dstId = 50 # reverse(64) 1 1 0 0 1 0 -> 0 1 0 0 1 1
**core[20].source.dstId = 10 # reverse(64) 0 0 1 0 1 0 -> 0 1 0 1 0 0
**core[21].source.dstId = 42 # reverse(64) 1 0 1 0 1 0 -> 0 1 0 1 0 1
**core[22].source.dstId = 26 # reverse(64) 0 1 1 0 1 0 -> 0 1 0 1 1 0
**core[23].source.dstId = 58 # reverse(64) 1 1 1 0 1 0 -> 0 1 0 1 1 1
**core[24].source.dstId = 6 # reverse(64) 0 0 0 1 1 0 -> 0 1 1 0 0 0
**core[25].source.dstId = 38 # reverse(64) 1 0 0 1 1 0 -> 0 1 1 0 0 1
**core[26].source.dstId = 22 # reverse(64) 0 1 0 1 1 0 -> 0 1 1 0 1 0
**core[27].source.dstId = 54 # reverse(64) 1 1 0 1 1 0 -> 0 1 1 0 1 1
**core[28].source.dstId = 14 # reverse(64) 0 0 1 1 1 0 -> 0 1 1 1 0 0
**core[29].source.dstId = 46 # reverse(64) 1 0 1 1 1 0 -> 0 1 1 1 0 1
**core[30].source.dstId = -1 # reverse(64) 0 1 1 1 1 0 -> 0 1 1 1 1 0
**core[31].source.dstId = 62 # reverse(64) 1 1 1 1 1 0 -> 0 1 1 1 1 1
**core[32].source.dstId = 1 # reverse(64) 0 0 0 0 0 1 -> 1 0 0 0 0 0
**core[33].source.dstId = -1 # reverse(64) 1 0 0 0 0 1 -> 1 0 0 0 0 1
**core[34].source.dstId = 17 # reverse(64) 0 1 0 0 0 1 -> 1 0 0 0 1 0
**core[35].source.dstId = 49 # reverse(64) 1 1 0 0 0 1 -> 1 0 0 0 1 1
**core[36].source.dstId = 9 # reverse(64) 0 0 1 0 0 1 -> 1 0 0 1 0 0
**core[37].source.dstId = 41 # reverse(64) 1 0 1 0 0 1 -> 1 0 0 1 0 1
**core[38].source.dstId = 25 # reverse(64) 0 1 1 0 0 1 -> 1 0 0 1 1 0
**core[39].source.dstId = 57 # reverse(64) 1 1 1 0 0 1 -> 1 0 0 1 1 1
**core[40].source.dstId = 5 # reverse(64) 0 0 0 1 0 1 -> 1 0 1 0 0 0
**core[41].source.dstId = 37 # reverse(64) 1 0 0 1 0 1 -> 1 0 1 0 0 1
**core[42].source.dstId = 21 # reverse(64) 0 1 0 1 0 1 -> 1 0 1 0 1 0
**core[43].source.dstId = 53 # reverse(64) 1 1 0 1 0 1 -> 1 0 1 0 1 1
**core[44].source.dstId = 13 # reverse(64) 0 0 1 1 0 1 -> 1 0 1 1 0 0
**core[45].source.dstId = -1 # reverse(64) 1 0 1 1 0 1 -> 1 0 1 1 0 1
**core[46].source.dstId = 29 # reverse(64) 0 1 1 1 0 1 -> 1 0 1 1 1 0
**core[47].source.dstId = 61 # reverse(64) 1 1 1 1 0 1 -> 1 0 1 1 1 1
**core[48].source.dstId = 3 # reverse(64) 0 0 0 0 1 1 -> 1 1 0 0 0 0
**core[49].source.dstId = 35 # reverse(64) 1 0 0 0 1 1 -> 1 1 0 0 0 1
**core[50].source.dstId = 19 # reverse(64) 0 1 0 0 1 1 -> 1 1 0 0 1 0
**core[51].source.dstId = -1 # reverse(64) 1 1 0 0 1 1 -> 1 1 0 0 1 1
**core[52].source.dstId = 11 # reverse(64) 0 0 1 0 1 1 -> 1 1 0 1 0 0
**core[53].source.dstId = 43 # reverse(64) 1 0 1 0 1 1 -> 1 1 0 1 0 1
**core[54].source.dstId = 27 # reverse(64) 0 1 1 0 1 1 -> 1 1 0 1 1 0
**core[55].source.dstId = 59 # reverse(64) 1 1 1 0 1 1 -> 1 1 0 1 1 1
**core[56].source.dstId = 7 # reverse(64) 0 0 0 1 1 1 -> 1 1 1 0 0 0
**core[57].source.dstId = 39 # reverse(64) 1 0 0 1 1 1 -> 1 1 1 0 0 1
**core[58].source.dstId = 23 # reverse(64) 0 1 0 1 1 1 -> 1 1 1 0 1 0
**core[59].source.dstId = 55 # reverse(64) 1 1 0 1 1 1 -> 1 1 1 0 1 1
**core[60].source.dstId = 15 # reverse(64) 0 0 1 1 1 1 -> 1 1 1 1 0 0
**core[61].source.dstId = 47 # reverse(64) 1 0 1 1 1 1 -> 1 1 1 1 0 1
**core[62].source.dstId = 31 # reverse(64) 0 1 1 1 1 1 -> 1 1 1 1 1 0
**core[63].source.dstId = -1 # reverse(64) 1 1 1 1 1 1 -> 1 1 1 1 1 1

[Config bit-rotate-8x8]
**.pktLen = ${P=16} # flits
**.source.flitArrivalDelay = exponential(${D=3,3.5,4,4.5,5,6,7,8,9,10,12,14}ns)
**.columns = 8
**.numVCs = 2
**.rows = 8
repeat = 5
**core[0].source.dstId = -1 # rotate(64) 0 0 0 0 0 0 -> 0 0 0 0 0 0
**core[1].source.dstId = 32 # rotate(64) 1 0 0 0 0 0 -> 0 0 0 0 0 1
**core[2].source.dstId = 1 # rotate(64) 0 1 0 0 0 0 -> 1 0 0 0 0 0
**core[3].source.dstId = 33 # rotate(64) 1 1 0 0 0 0 -> 1 0 0 0 0 1
**core[4].source.dstId = 2 # rotate(64) 0 0 1 0 0 0 -> 0 1 0 0 0 0
**core[5].source.dstId = 34 # rotate(64) 1 0 1 0 0 0 -> 0 1 0 0 0 1
**core[6].source.dstId = 3 # rotate(64) 0 1 1 0 0 0 -> 1 1 0 0 0 0
**core[7].source.dstId = 35 # rotate(64) 1 1 1 0 0 0 -> 1 1 0 0 0 1
**core[8].source.dstId = 4 # rotate(64) 0 0 0 1 0 0 -> 0 0 1 0 0 0
**core[9].source.dstId = 36 # rotate(64) 1 0 0 1 0 0 -> 0 0 1 0 0 1
**core[10].source.dstId = 5 # rotate(64) 0 1 0 1 0 0 -> 1 0 1 0 0 0
**core[11].source.dstId = 37 # rotate(64) 1 1 0 1 0 0 -> 1 0 1 0 0 1
**core[12].source.dstId = 6 # rotate(64) 0 0 1 1 0 0 -> 0 1 1 0 0 0
**core[13].source.dstId = 38 # rotate(64) 1 0 1 1 0 0 -> 0 1 1 0 0 1
**core[14].source.dstId = 7 # rotate(64) 0 1 1 1 0 0 -> 1 1 1 0 0 0
**core[15].source.dstId = 39 # rotate(64) 1 1 1 1 0 0 -> 1 1 1 0 0 1
**core[16].source.dstId = 8 # rotate(64) 0 0 0 0 1 0 -> 0 0 0 1 0 0
**core[17].source.dstId = 40 # rotate(64) 1 0 0 0 1 0 -> 0 0 0 1 0 1
**core[18].source.dstId = 9 # rotate(64) 0 1 0 0 1 0 -> 1 0 0 1 0 0
**core[19].source.dstId = 41 # rotate(64) 1 1 0 0 1 0 -> 1 0 0 1 0 1
**core[20].source.dstId = 10 # rotate(64) 0 0 1 0 1 0 -> 0 1 0 1 0 0
**core[21].source.dstId = 42 # rotate(64) 1 0 1 0 1 0 -> 0 1 0 1 0 1
**core[22].source.dstId = 11 # rotate(64) 0 1 1 0 1 0 -> 1 1 0 1 0 0
**core[23].source.dstId = 43 # rotate(64) 1 1 1 0 1 0 -> 1 1 0 1 0 1
**core[24].source.dstId = 12 # rotate(64) 0 0 0 1 1 0 -> 0 0 1 1 0 0
**core[25].source.dstId = 44 # rotate(64) 1 0 0 1 1 0 -> 0 0 1 1 0 1
**core[26].source.dstId = 13 # rotate(64) 0 1 0 1 1 0 -> 1 0 1 1 0 0
**core[27].source.dstId = 45 # rotate(64) 1 1 0 1 1 0 -> 1 0 1 1 0 1
**core[28].source.dstId = 14 # rotate(64) 0 0 1 1 1 0 -> 0 1 1 1 0 0
**core[29].source.dstId = 46 # rotate(64) 1 0 1 1 1 0 -> 0 1 1 1 0 1
**core[30].source.dstId = 15 # rotate(64) 0 1 1 1 1 0 -> 1 1 1 1 0 0
**core[31].source.dstId = 47 # rotate(64) 1 1 1 1 1 0 -> 1 1 1 1 0 1
**core[32].source.dstId = 16 # rotate(64) 0 0 0 0 0 1 -> 0 0 0 0 1 0
**core[33].source.dstId = 48 # rotate(64) 1 0 0 0 0 1 -> 0 0 0 0 1 1
**core[34].source.dstId = 17 # rotate(64) 0 1 0 0 0 1 -> 1 0 0 0 1 0
**core[35].source.dstId = 49 # rotate(64) 1 1 0 0 0 1 -> 1 0 0 0 1 1
**core[36].source.dstId = 18 # rotate(64) 0 0 1 0 0 1 -> 0 1 0 0 1 0
**core[37].source.dstId = 50 # rotate(64) 1 0 1 0 0 1 -> 0 1 0 0 1 1
**core[38].source.dstId = 19 # rotate(64) 0 1 1 0 0 1 -> 1 1 0 0 1 0
**core[39].source.dstId = 51 # rotate(64) 1 1 1 0 0 1 -> 1 1 0 0 1 1
**core[40].source.dstId = 20 # rotate(64) 0 0 0 1 0 1 -> 0 0 1 0 1 0
**core[41].source.dstId = 52 # rotate(64) 1 0 0 1 0 1 -> 0 0 1 0 1 1
**core[42].source.dstId = 21 # rotate(64) 0 1 0 1 0 1 -> 1 0 1 0 1 0
**core[43].source.dstId = 53 # rotate(64) 1 1 0 1 0 1 -> 1 0 1 0 1 1
**core[44].source.dstId = 22 # rotate(64) 0 0 1 1 0 1 -> 0 1 1 0 1 0
**core[45].source.dstId = 54 # rotate(64) 1 0 1 1 0 1 -> 0 1 1 0 1 1
**core[46].source.dstId = 23 # rotate(64) 0 1 1 1 0 1 -> 1 1 1 0 1 0
**core[47].source.dstId = 55 # rotate(64) 1 1 1 1 0 1 -> 1 1 1 0 1 1
**core[48].source.dstId = 24 # rotate(64) 0 0 0 0 1 1 -> 0 0 0 1 1 0